[root]
type=Root
children=system
eventq_index=0
full_system=false
sim_quantum=0
time_sync_enable=false
time_sync_period=100000000000
time_sync_spin_threshold=100000000

[system]
type=System
children=clk_domain cpu00 cpu01 cpu02 cpu03 cpu04 cpu05 cpu06 cpu07 cpu08 cpu09 cpu10 cpu11 cpu12 cpu13 cpu14 cpu15 cpu_clk_domain cpu_voltage_domain dvfs_handler mem_ctrls00 mem_ctrls01 mem_ctrls02 mem_ctrls03 mem_ctrls04 mem_ctrls05 mem_ctrls06 mem_ctrls07 mem_ctrls08 mem_ctrls09 mem_ctrls10 mem_ctrls11 mem_ctrls12 mem_ctrls13 mem_ctrls14 mem_ctrls15 redirect_paths0 redirect_paths1 redirect_paths2 redirect_paths3 ruby sys_port_proxy voltage_domain
boot_osflags=a
cache_line_size=64
eventq_index=0
exit_on_work_items=false
init_param=0
kernel=
kernel_addr_check=true
kernel_extras=
kvm_vm=Null
load_addr_mask=18446744073709551615
load_offset=0
mem_mode=timing
mem_ranges=0:1073741823:0:0:0:0
memories=system.mem_ctrls00 system.mem_ctrls01 system.mem_ctrls02 system.mem_ctrls03 system.mem_ctrls04 system.mem_ctrls05 system.mem_ctrls06 system.mem_ctrls07 system.mem_ctrls08 system.mem_ctrls09 system.mem_ctrls10 system.mem_ctrls11 system.mem_ctrls12 system.mem_ctrls13 system.mem_ctrls14 system.mem_ctrls15
mmap_using_noreserve=false
multi_thread=false
num_work_ids=16
readfile=
redirect_paths=system.redirect_paths0 system.redirect_paths1 system.redirect_paths2 system.redirect_paths3
symbolfile=
thermal_components=
thermal_model=Null
work_begin_ckpt_count=0
work_begin_cpu_id_exit=-1
work_begin_exit_count=0
work_cpus_ckpt_count=0
work_end_ckpt_count=0
work_end_exit_count=0
work_item_id=-1
system_port=system.sys_port_proxy.slave[0]

[system.clk_domain]
type=SrcClockDomain
clock=1000
domain_id=-1
eventq_index=0
init_perf_level=0
voltage_domain=system.voltage_domain

[system.cpu00]
type=DerivO3CPU
children=apic_clk_domain branchPred dtb fuPool interrupts isa itb tracer workload
LFSTSize=1024
LQEntries=32
LSQCheckLoads=true
LSQDepCheckShift=4
SQEntries=32
SSITSize=1024
activity=0
backComSize=5
branchPred=system.cpu00.branchPred
cacheLoadPorts=200
cacheStorePorts=200
checker=Null
clk_domain=system.cpu_clk_domain
commitToDecodeDelay=1
commitToFetchDelay=1
commitToIEWDelay=1
commitToRenameDelay=1
commitWidth=8
cpu_id=0
decodeToFetchDelay=1
decodeToRenameDelay=1
decodeWidth=8
default_p_state=UNDEFINED
dispatchWidth=8
do_checkpoint_insts=true
do_quiesce=true
do_statistics_insts=true
dtb=system.cpu00.dtb
eventq_index=0
fetchBufferSize=64
fetchQueueSize=32
fetchToDecodeDelay=1
fetchTrapLatency=1
fetchWidth=8
forwardComSize=5
fuPool=system.cpu00.fuPool
function_trace=false
function_trace_start=0
iewToCommitDelay=1
iewToDecodeDelay=1
iewToFetchDelay=1
iewToRenameDelay=1
interrupts=system.cpu00.interrupts
isa=system.cpu00.isa
issueToExecuteDelay=1
issueWidth=8
itb=system.cpu00.itb
max_insts_all_threads=0
max_insts_any_thread=0
max_loads_all_threads=0
max_loads_any_thread=0
needsTSO=true
numIQEntries=64
numPhysCCRegs=1280
numPhysFloatRegs=256
numPhysIntRegs=256
numPhysVecPredRegs=32
numPhysVecRegs=256
numROBEntries=192
numRobs=1
numThreads=1
p_state_clk_gate_bins=20
p_state_clk_gate_max=1000000000000
p_state_clk_gate_min=1000
power_gating_on_idle=false
power_model=
profile=0
progress_interval=0
pwr_gating_latency=300
renameToDecodeDelay=1
renameToFetchDelay=1
renameToIEWDelay=2
renameToROBDelay=1
renameWidth=8
simpoint_start_insts=
smtCommitPolicy=RoundRobin
smtFetchPolicy=SingleThread
smtIQPolicy=Partitioned
smtIQThreshold=100
smtLSQPolicy=Partitioned
smtLSQThreshold=100
smtNumFetchingThreads=1
smtROBPolicy=Partitioned
smtROBThreshold=100
socket_id=0
squashWidth=8
store_set_clear_period=250000
switched_out=false
syscallRetryLatency=10000
system=system
tracer=system.cpu00.tracer
trapLatency=13
wait_for_remote_gdb=false
wbWidth=8
workload=system.cpu00.workload
dcache_port=system.ruby.l1_cntrl0.sequencer.slave[1]
icache_port=system.ruby.l1_cntrl0.sequencer.slave[0]

[system.cpu00.apic_clk_domain]
type=DerivedClockDomain
clk_divider=16
clk_domain=system.cpu_clk_domain
eventq_index=0

[system.cpu00.branchPred]
type=TournamentBP
children=indirectBranchPred
BTBEntries=4096
BTBTagSize=16
RASSize=16
choiceCtrBits=2
choicePredictorSize=8192
eventq_index=0
globalCtrBits=2
globalPredictorSize=8192
indirectBranchPred=system.cpu00.branchPred.indirectBranchPred
instShiftAmt=2
localCtrBits=2
localHistoryTableSize=2048
localPredictorSize=2048
numThreads=1

[system.cpu00.branchPred.indirectBranchPred]
type=SimpleIndirectPredictor
eventq_index=0
indirectGHRBits=13
indirectHashGHR=true
indirectHashTargets=true
indirectPathLength=3
indirectSets=256
indirectTagSize=16
indirectWays=2
instShiftAmt=2
numThreads=1

[system.cpu00.dtb]
type=X86TLB
children=walker
eventq_index=0
size=64
walker=system.cpu00.dtb.walker

[system.cpu00.dtb.walker]
type=X86PagetableWalker
clk_domain=system.cpu_clk_domain
default_p_state=UNDEFINED
eventq_index=0
num_squash_per_cycle=4
p_state_clk_gate_bins=20
p_state_clk_gate_max=1000000000000
p_state_clk_gate_min=1000
power_model=
system=system
port=system.ruby.l1_cntrl0.sequencer.slave[4]

[system.cpu00.fuPool]
type=FUPool
children=FUList0 FUList1 FUList2 FUList3 FUList4 FUList5 FUList6 FUList7 FUList8 FUList9
FUList=system.cpu00.fuPool.FUList0 system.cpu00.fuPool.FUList1 system.cpu00.fuPool.FUList2 system.cpu00.fuPool.FUList3 system.cpu00.fuPool.FUList4 system.cpu00.fuPool.FUList5 system.cpu00.fuPool.FUList6 system.cpu00.fuPool.FUList7 system.cpu00.fuPool.FUList8 system.cpu00.fuPool.FUList9
eventq_index=0

[system.cpu00.fuPool.FUList0]
type=FUDesc
children=opList
count=6
eventq_index=0
opList=system.cpu00.fuPool.FUList0.opList

[system.cpu00.fuPool.FUList0.opList]
type=OpDesc
eventq_index=0
opClass=IntAlu
opLat=1
pipelined=true

[system.cpu00.fuPool.FUList1]
type=FUDesc
children=opList0 opList1
count=2
eventq_index=0
opList=system.cpu00.fuPool.FUList1.opList0 system.cpu00.fuPool.FUList1.opList1

[system.cpu00.fuPool.FUList1.opList0]
type=OpDesc
eventq_index=0
opClass=IntMult
opLat=3
pipelined=true

[system.cpu00.fuPool.FUList1.opList1]
type=OpDesc
eventq_index=0
opClass=IntDiv
opLat=1
pipelined=false

[system.cpu00.fuPool.FUList2]
type=FUDesc
children=opList0 opList1 opList2
count=4
eventq_index=0
opList=system.cpu00.fuPool.FUList2.opList0 system.cpu00.fuPool.FUList2.opList1 system.cpu00.fuPool.FUList2.opList2

[system.cpu00.fuPool.FUList2.opList0]
type=OpDesc
eventq_index=0
opClass=FloatAdd
opLat=2
pipelined=true

[system.cpu00.fuPool.FUList2.opList1]
type=OpDesc
eventq_index=0
opClass=FloatCmp
opLat=2
pipelined=true

[system.cpu00.fuPool.FUList2.opList2]
type=OpDesc
eventq_index=0
opClass=FloatCvt
opLat=2
pipelined=true

[system.cpu00.fuPool.FUList3]
type=FUDesc
children=opList0 opList1 opList2 opList3 opList4
count=2
eventq_index=0
opList=system.cpu00.fuPool.FUList3.opList0 system.cpu00.fuPool.FUList3.opList1 system.cpu00.fuPool.FUList3.opList2 system.cpu00.fuPool.FUList3.opList3 system.cpu00.fuPool.FUList3.opList4

[system.cpu00.fuPool.FUList3.opList0]
type=OpDesc
eventq_index=0
opClass=FloatMult
opLat=4
pipelined=true

[system.cpu00.fuPool.FUList3.opList1]
type=OpDesc
eventq_index=0
opClass=FloatMultAcc
opLat=5
pipelined=true

[system.cpu00.fuPool.FUList3.opList2]
type=OpDesc
eventq_index=0
opClass=FloatMisc
opLat=3
pipelined=true

[system.cpu00.fuPool.FUList3.opList3]
type=OpDesc
eventq_index=0
opClass=FloatDiv
opLat=12
pipelined=false

[system.cpu00.fuPool.FUList3.opList4]
type=OpDesc
eventq_index=0
opClass=FloatSqrt
opLat=24
pipelined=false

[system.cpu00.fuPool.FUList4]
type=FUDesc
children=opList0 opList1
count=0
eventq_index=0
opList=system.cpu00.fuPool.FUList4.opList0 system.cpu00.fuPool.FUList4.opList1

[system.cpu00.fuPool.FUList4.opList0]
type=OpDesc
eventq_index=0
opClass=MemRead
opLat=1
pipelined=true

[system.cpu00.fuPool.FUList4.opList1]
type=OpDesc
eventq_index=0
opClass=FloatMemRead
opLat=1
pipelined=true

[system.cpu00.fuPool.FUList5]
type=FUDesc
children=opList00 opList01 opList02 opList03 opList04 opList05 opList06 opList07 opList08 opList09 opList10 opList11 opList12 opList13 opList14 opList15 opList16 opList17 opList18 opList19 opList20 opList21 opList22 opList23 opList24 opList25
count=4
eventq_index=0
opList=system.cpu00.fuPool.FUList5.opList00 system.cpu00.fuPool.FUList5.opList01 system.cpu00.fuPool.FUList5.opList02 system.cpu00.fuPool.FUList5.opList03 system.cpu00.fuPool.FUList5.opList04 system.cpu00.fuPool.FUList5.opList05 system.cpu00.fuPool.FUList5.opList06 system.cpu00.fuPool.FUList5.opList07 system.cpu00.fuPool.FUList5.opList08 system.cpu00.fuPool.FUList5.opList09 system.cpu00.fuPool.FUList5.opList10 system.cpu00.fuPool.FUList5.opList11 system.cpu00.fuPool.FUList5.opList12 system.cpu00.fuPool.FUList5.opList13 system.cpu00.fuPool.FUList5.opList14 system.cpu00.fuPool.FUList5.opList15 system.cpu00.fuPool.FUList5.opList16 system.cpu00.fuPool.FUList5.opList17 system.cpu00.fuPool.FUList5.opList18 system.cpu00.fuPool.FUList5.opList19 system.cpu00.fuPool.FUList5.opList20 system.cpu00.fuPool.FUList5.opList21 system.cpu00.fuPool.FUList5.opList22 system.cpu00.fuPool.FUList5.opList23 system.cpu00.fuPool.FUList5.opList24 system.cpu00.fuPool.FUList5.opList25

[system.cpu00.fuPool.FUList5.opList00]
type=OpDesc
eventq_index=0
opClass=SimdAdd
opLat=1
pipelined=true

[system.cpu00.fuPool.FUList5.opList01]
type=OpDesc
eventq_index=0
opClass=SimdAddAcc
opLat=1
pipelined=true

[system.cpu00.fuPool.FUList5.opList02]
type=OpDesc
eventq_index=0
opClass=SimdAlu
opLat=1
pipelined=true

[system.cpu00.fuPool.FUList5.opList03]
type=OpDesc
eventq_index=0
opClass=SimdCmp
opLat=1
pipelined=true

[system.cpu00.fuPool.FUList5.opList04]
type=OpDesc
eventq_index=0
opClass=SimdCvt
opLat=1
pipelined=true

[system.cpu00.fuPool.FUList5.opList05]
type=OpDesc
eventq_index=0
opClass=SimdMisc
opLat=1
pipelined=true

[system.cpu00.fuPool.FUList5.opList06]
type=OpDesc
eventq_index=0
opClass=SimdMult
opLat=1
pipelined=true

[system.cpu00.fuPool.FUList5.opList07]
type=OpDesc
eventq_index=0
opClass=SimdMultAcc
opLat=1
pipelined=true

[system.cpu00.fuPool.FUList5.opList08]
type=OpDesc
eventq_index=0
opClass=SimdShift
opLat=1
pipelined=true

[system.cpu00.fuPool.FUList5.opList09]
type=OpDesc
eventq_index=0
opClass=SimdShiftAcc
opLat=1
pipelined=true

[system.cpu00.fuPool.FUList5.opList10]
type=OpDesc
eventq_index=0
opClass=SimdDiv
opLat=1
pipelined=true

[system.cpu00.fuPool.FUList5.opList11]
type=OpDesc
eventq_index=0
opClass=SimdSqrt
opLat=1
pipelined=true

[system.cpu00.fuPool.FUList5.opList12]
type=OpDesc
eventq_index=0
opClass=SimdFloatAdd
opLat=1
pipelined=true

[system.cpu00.fuPool.FUList5.opList13]
type=OpDesc
eventq_index=0
opClass=SimdFloatAlu
opLat=1
pipelined=true

[system.cpu00.fuPool.FUList5.opList14]
type=OpDesc
eventq_index=0
opClass=SimdFloatCmp
opLat=1
pipelined=true

[system.cpu00.fuPool.FUList5.opList15]
type=OpDesc
eventq_index=0
opClass=SimdFloatCvt
opLat=1
pipelined=true

[system.cpu00.fuPool.FUList5.opList16]
type=OpDesc
eventq_index=0
opClass=SimdFloatDiv
opLat=1
pipelined=true

[system.cpu00.fuPool.FUList5.opList17]
type=OpDesc
eventq_index=0
opClass=SimdFloatMisc
opLat=1
pipelined=true

[system.cpu00.fuPool.FUList5.opList18]
type=OpDesc
eventq_index=0
opClass=SimdFloatMult
opLat=1
pipelined=true

[system.cpu00.fuPool.FUList5.opList19]
type=OpDesc
eventq_index=0
opClass=SimdFloatMultAcc
opLat=1
pipelined=true

[system.cpu00.fuPool.FUList5.opList20]
type=OpDesc
eventq_index=0
opClass=SimdFloatSqrt
opLat=1
pipelined=true

[system.cpu00.fuPool.FUList5.opList21]
type=OpDesc
eventq_index=0
opClass=SimdReduceAdd
opLat=1
pipelined=true

[system.cpu00.fuPool.FUList5.opList22]
type=OpDesc
eventq_index=0
opClass=SimdReduceAlu
opLat=1
pipelined=true

[system.cpu00.fuPool.FUList5.opList23]
type=OpDesc
eventq_index=0
opClass=SimdReduceCmp
opLat=1
pipelined=true

[system.cpu00.fuPool.FUList5.opList24]
type=OpDesc
eventq_index=0
opClass=SimdFloatReduceAdd
opLat=1
pipelined=true

[system.cpu00.fuPool.FUList5.opList25]
type=OpDesc
eventq_index=0
opClass=SimdFloatReduceCmp
opLat=1
pipelined=true

[system.cpu00.fuPool.FUList6]
type=FUDesc
children=opList
count=1
eventq_index=0
opList=system.cpu00.fuPool.FUList6.opList

[system.cpu00.fuPool.FUList6.opList]
type=OpDesc
eventq_index=0
opClass=SimdPredAlu
opLat=1
pipelined=true

[system.cpu00.fuPool.FUList7]
type=FUDesc
children=opList0 opList1
count=0
eventq_index=0
opList=system.cpu00.fuPool.FUList7.opList0 system.cpu00.fuPool.FUList7.opList1

[system.cpu00.fuPool.FUList7.opList0]
type=OpDesc
eventq_index=0
opClass=MemWrite
opLat=1
pipelined=true

[system.cpu00.fuPool.FUList7.opList1]
type=OpDesc
eventq_index=0
opClass=FloatMemWrite
opLat=1
pipelined=true

[system.cpu00.fuPool.FUList8]
type=FUDesc
children=opList0 opList1 opList2 opList3
count=4
eventq_index=0
opList=system.cpu00.fuPool.FUList8.opList0 system.cpu00.fuPool.FUList8.opList1 system.cpu00.fuPool.FUList8.opList2 system.cpu00.fuPool.FUList8.opList3

[system.cpu00.fuPool.FUList8.opList0]
type=OpDesc
eventq_index=0
opClass=MemRead
opLat=1
pipelined=true

[system.cpu00.fuPool.FUList8.opList1]
type=OpDesc
eventq_index=0
opClass=MemWrite
opLat=1
pipelined=true

[system.cpu00.fuPool.FUList8.opList2]
type=OpDesc
eventq_index=0
opClass=FloatMemRead
opLat=1
pipelined=true

[system.cpu00.fuPool.FUList8.opList3]
type=OpDesc
eventq_index=0
opClass=FloatMemWrite
opLat=1
pipelined=true

[system.cpu00.fuPool.FUList9]
type=FUDesc
children=opList
count=1
eventq_index=0
opList=system.cpu00.fuPool.FUList9.opList

[system.cpu00.fuPool.FUList9.opList]
type=OpDesc
eventq_index=0
opClass=IprAccess
opLat=3
pipelined=false

[system.cpu00.interrupts]
type=X86LocalApic
clk_domain=system.cpu00.apic_clk_domain
default_p_state=UNDEFINED
eventq_index=0
int_latency=1000
p_state_clk_gate_bins=20
p_state_clk_gate_max=1000000000000
p_state_clk_gate_min=1000
pio_addr=2305843009213693952
pio_latency=100000
power_model=
system=system
int_master=system.ruby.l1_cntrl0.sequencer.slave[2]
int_slave=system.ruby.l1_cntrl0.sequencer.master[1]
pio=system.ruby.l1_cntrl0.sequencer.master[0]

[system.cpu00.isa]
type=X86ISA
eventq_index=0

[system.cpu00.itb]
type=X86TLB
children=walker
eventq_index=0
size=64
walker=system.cpu00.itb.walker

[system.cpu00.itb.walker]
type=X86PagetableWalker
clk_domain=system.cpu_clk_domain
default_p_state=UNDEFINED
eventq_index=0
num_squash_per_cycle=4
p_state_clk_gate_bins=20
p_state_clk_gate_max=1000000000000
p_state_clk_gate_min=1000
power_model=
system=system
port=system.ruby.l1_cntrl0.sequencer.slave[3]

[system.cpu00.tracer]
type=ExeTracer
eventq_index=0

[system.cpu00.workload]
type=Process
cmd=CAPBn/km --class small --nthreads 16
cwd=/home/arq/Documentos/gem5
drivers=
egid=100
env=
errout=cerr
euid=100
eventq_index=0
executable=CAPBn/km
gid=100
input=cin
kvmInSE=false
maxStackSize=67108864
output=cout
pgid=100
pid=100
ppid=0
simpoint=0
system=system
uid=100
useArchPT=false

[system.cpu01]
type=DerivO3CPU
children=apic_clk_domain branchPred dtb fuPool interrupts isa itb tracer
LFSTSize=1024
LQEntries=32
LSQCheckLoads=true
LSQDepCheckShift=4
SQEntries=32
SSITSize=1024
activity=0
backComSize=5
branchPred=system.cpu01.branchPred
cacheLoadPorts=200
cacheStorePorts=200
checker=Null
clk_domain=system.cpu_clk_domain
commitToDecodeDelay=1
commitToFetchDelay=1
commitToIEWDelay=1
commitToRenameDelay=1
commitWidth=8
cpu_id=1
decodeToFetchDelay=1
decodeToRenameDelay=1
decodeWidth=8
default_p_state=UNDEFINED
dispatchWidth=8
do_checkpoint_insts=true
do_quiesce=true
do_statistics_insts=true
dtb=system.cpu01.dtb
eventq_index=0
fetchBufferSize=64
fetchQueueSize=32
fetchToDecodeDelay=1
fetchTrapLatency=1
fetchWidth=8
forwardComSize=5
fuPool=system.cpu01.fuPool
function_trace=false
function_trace_start=0
iewToCommitDelay=1
iewToDecodeDelay=1
iewToFetchDelay=1
iewToRenameDelay=1
interrupts=system.cpu01.interrupts
isa=system.cpu01.isa
issueToExecuteDelay=1
issueWidth=8
itb=system.cpu01.itb
max_insts_all_threads=0
max_insts_any_thread=0
max_loads_all_threads=0
max_loads_any_thread=0
needsTSO=true
numIQEntries=64
numPhysCCRegs=1280
numPhysFloatRegs=256
numPhysIntRegs=256
numPhysVecPredRegs=32
numPhysVecRegs=256
numROBEntries=192
numRobs=1
numThreads=1
p_state_clk_gate_bins=20
p_state_clk_gate_max=1000000000000
p_state_clk_gate_min=1000
power_gating_on_idle=false
power_model=
profile=0
progress_interval=0
pwr_gating_latency=300
renameToDecodeDelay=1
renameToFetchDelay=1
renameToIEWDelay=2
renameToROBDelay=1
renameWidth=8
simpoint_start_insts=
smtCommitPolicy=RoundRobin
smtFetchPolicy=SingleThread
smtIQPolicy=Partitioned
smtIQThreshold=100
smtLSQPolicy=Partitioned
smtLSQThreshold=100
smtNumFetchingThreads=1
smtROBPolicy=Partitioned
smtROBThreshold=100
socket_id=0
squashWidth=8
store_set_clear_period=250000
switched_out=false
syscallRetryLatency=10000
system=system
tracer=system.cpu01.tracer
trapLatency=13
wait_for_remote_gdb=false
wbWidth=8
workload=system.cpu00.workload
dcache_port=system.ruby.l1_cntrl1.sequencer.slave[1]
icache_port=system.ruby.l1_cntrl1.sequencer.slave[0]

[system.cpu01.apic_clk_domain]
type=DerivedClockDomain
clk_divider=16
clk_domain=system.cpu_clk_domain
eventq_index=0

[system.cpu01.branchPred]
type=TournamentBP
children=indirectBranchPred
BTBEntries=4096
BTBTagSize=16
RASSize=16
choiceCtrBits=2
choicePredictorSize=8192
eventq_index=0
globalCtrBits=2
globalPredictorSize=8192
indirectBranchPred=system.cpu01.branchPred.indirectBranchPred
instShiftAmt=2
localCtrBits=2
localHistoryTableSize=2048
localPredictorSize=2048
numThreads=1

[system.cpu01.branchPred.indirectBranchPred]
type=SimpleIndirectPredictor
eventq_index=0
indirectGHRBits=13
indirectHashGHR=true
indirectHashTargets=true
indirectPathLength=3
indirectSets=256
indirectTagSize=16
indirectWays=2
instShiftAmt=2
numThreads=1

[system.cpu01.dtb]
type=X86TLB
children=walker
eventq_index=0
size=64
walker=system.cpu01.dtb.walker

[system.cpu01.dtb.walker]
type=X86PagetableWalker
clk_domain=system.cpu_clk_domain
default_p_state=UNDEFINED
eventq_index=0
num_squash_per_cycle=4
p_state_clk_gate_bins=20
p_state_clk_gate_max=1000000000000
p_state_clk_gate_min=1000
power_model=
system=system
port=system.ruby.l1_cntrl1.sequencer.slave[4]

[system.cpu01.fuPool]
type=FUPool
children=FUList0 FUList1 FUList2 FUList3 FUList4 FUList5 FUList6 FUList7 FUList8 FUList9
FUList=system.cpu01.fuPool.FUList0 system.cpu01.fuPool.FUList1 system.cpu01.fuPool.FUList2 system.cpu01.fuPool.FUList3 system.cpu01.fuPool.FUList4 system.cpu01.fuPool.FUList5 system.cpu01.fuPool.FUList6 system.cpu01.fuPool.FUList7 system.cpu01.fuPool.FUList8 system.cpu01.fuPool.FUList9
eventq_index=0

[system.cpu01.fuPool.FUList0]
type=FUDesc
children=opList
count=6
eventq_index=0
opList=system.cpu01.fuPool.FUList0.opList

[system.cpu01.fuPool.FUList0.opList]
type=OpDesc
eventq_index=0
opClass=IntAlu
opLat=1
pipelined=true

[system.cpu01.fuPool.FUList1]
type=FUDesc
children=opList0 opList1
count=2
eventq_index=0
opList=system.cpu01.fuPool.FUList1.opList0 system.cpu01.fuPool.FUList1.opList1

[system.cpu01.fuPool.FUList1.opList0]
type=OpDesc
eventq_index=0
opClass=IntMult
opLat=3
pipelined=true

[system.cpu01.fuPool.FUList1.opList1]
type=OpDesc
eventq_index=0
opClass=IntDiv
opLat=1
pipelined=false

[system.cpu01.fuPool.FUList2]
type=FUDesc
children=opList0 opList1 opList2
count=4
eventq_index=0
opList=system.cpu01.fuPool.FUList2.opList0 system.cpu01.fuPool.FUList2.opList1 system.cpu01.fuPool.FUList2.opList2

[system.cpu01.fuPool.FUList2.opList0]
type=OpDesc
eventq_index=0
opClass=FloatAdd
opLat=2
pipelined=true

[system.cpu01.fuPool.FUList2.opList1]
type=OpDesc
eventq_index=0
opClass=FloatCmp
opLat=2
pipelined=true

[system.cpu01.fuPool.FUList2.opList2]
type=OpDesc
eventq_index=0
opClass=FloatCvt
opLat=2
pipelined=true

[system.cpu01.fuPool.FUList3]
type=FUDesc
children=opList0 opList1 opList2 opList3 opList4
count=2
eventq_index=0
opList=system.cpu01.fuPool.FUList3.opList0 system.cpu01.fuPool.FUList3.opList1 system.cpu01.fuPool.FUList3.opList2 system.cpu01.fuPool.FUList3.opList3 system.cpu01.fuPool.FUList3.opList4

[system.cpu01.fuPool.FUList3.opList0]
type=OpDesc
eventq_index=0
opClass=FloatMult
opLat=4
pipelined=true

[system.cpu01.fuPool.FUList3.opList1]
type=OpDesc
eventq_index=0
opClass=FloatMultAcc
opLat=5
pipelined=true

[system.cpu01.fuPool.FUList3.opList2]
type=OpDesc
eventq_index=0
opClass=FloatMisc
opLat=3
pipelined=true

[system.cpu01.fuPool.FUList3.opList3]
type=OpDesc
eventq_index=0
opClass=FloatDiv
opLat=12
pipelined=false

[system.cpu01.fuPool.FUList3.opList4]
type=OpDesc
eventq_index=0
opClass=FloatSqrt
opLat=24
pipelined=false

[system.cpu01.fuPool.FUList4]
type=FUDesc
children=opList0 opList1
count=0
eventq_index=0
opList=system.cpu01.fuPool.FUList4.opList0 system.cpu01.fuPool.FUList4.opList1

[system.cpu01.fuPool.FUList4.opList0]
type=OpDesc
eventq_index=0
opClass=MemRead
opLat=1
pipelined=true

[system.cpu01.fuPool.FUList4.opList1]
type=OpDesc
eventq_index=0
opClass=FloatMemRead
opLat=1
pipelined=true

[system.cpu01.fuPool.FUList5]
type=FUDesc
children=opList00 opList01 opList02 opList03 opList04 opList05 opList06 opList07 opList08 opList09 opList10 opList11 opList12 opList13 opList14 opList15 opList16 opList17 opList18 opList19 opList20 opList21 opList22 opList23 opList24 opList25
count=4
eventq_index=0
opList=system.cpu01.fuPool.FUList5.opList00 system.cpu01.fuPool.FUList5.opList01 system.cpu01.fuPool.FUList5.opList02 system.cpu01.fuPool.FUList5.opList03 system.cpu01.fuPool.FUList5.opList04 system.cpu01.fuPool.FUList5.opList05 system.cpu01.fuPool.FUList5.opList06 system.cpu01.fuPool.FUList5.opList07 system.cpu01.fuPool.FUList5.opList08 system.cpu01.fuPool.FUList5.opList09 system.cpu01.fuPool.FUList5.opList10 system.cpu01.fuPool.FUList5.opList11 system.cpu01.fuPool.FUList5.opList12 system.cpu01.fuPool.FUList5.opList13 system.cpu01.fuPool.FUList5.opList14 system.cpu01.fuPool.FUList5.opList15 system.cpu01.fuPool.FUList5.opList16 system.cpu01.fuPool.FUList5.opList17 system.cpu01.fuPool.FUList5.opList18 system.cpu01.fuPool.FUList5.opList19 system.cpu01.fuPool.FUList5.opList20 system.cpu01.fuPool.FUList5.opList21 system.cpu01.fuPool.FUList5.opList22 system.cpu01.fuPool.FUList5.opList23 system.cpu01.fuPool.FUList5.opList24 system.cpu01.fuPool.FUList5.opList25

[system.cpu01.fuPool.FUList5.opList00]
type=OpDesc
eventq_index=0
opClass=SimdAdd
opLat=1
pipelined=true

[system.cpu01.fuPool.FUList5.opList01]
type=OpDesc
eventq_index=0
opClass=SimdAddAcc
opLat=1
pipelined=true

[system.cpu01.fuPool.FUList5.opList02]
type=OpDesc
eventq_index=0
opClass=SimdAlu
opLat=1
pipelined=true

[system.cpu01.fuPool.FUList5.opList03]
type=OpDesc
eventq_index=0
opClass=SimdCmp
opLat=1
pipelined=true

[system.cpu01.fuPool.FUList5.opList04]
type=OpDesc
eventq_index=0
opClass=SimdCvt
opLat=1
pipelined=true

[system.cpu01.fuPool.FUList5.opList05]
type=OpDesc
eventq_index=0
opClass=SimdMisc
opLat=1
pipelined=true

[system.cpu01.fuPool.FUList5.opList06]
type=OpDesc
eventq_index=0
opClass=SimdMult
opLat=1
pipelined=true

[system.cpu01.fuPool.FUList5.opList07]
type=OpDesc
eventq_index=0
opClass=SimdMultAcc
opLat=1
pipelined=true

[system.cpu01.fuPool.FUList5.opList08]
type=OpDesc
eventq_index=0
opClass=SimdShift
opLat=1
pipelined=true

[system.cpu01.fuPool.FUList5.opList09]
type=OpDesc
eventq_index=0
opClass=SimdShiftAcc
opLat=1
pipelined=true

[system.cpu01.fuPool.FUList5.opList10]
type=OpDesc
eventq_index=0
opClass=SimdDiv
opLat=1
pipelined=true

[system.cpu01.fuPool.FUList5.opList11]
type=OpDesc
eventq_index=0
opClass=SimdSqrt
opLat=1
pipelined=true

[system.cpu01.fuPool.FUList5.opList12]
type=OpDesc
eventq_index=0
opClass=SimdFloatAdd
opLat=1
pipelined=true

[system.cpu01.fuPool.FUList5.opList13]
type=OpDesc
eventq_index=0
opClass=SimdFloatAlu
opLat=1
pipelined=true

[system.cpu01.fuPool.FUList5.opList14]
type=OpDesc
eventq_index=0
opClass=SimdFloatCmp
opLat=1
pipelined=true

[system.cpu01.fuPool.FUList5.opList15]
type=OpDesc
eventq_index=0
opClass=SimdFloatCvt
opLat=1
pipelined=true

[system.cpu01.fuPool.FUList5.opList16]
type=OpDesc
eventq_index=0
opClass=SimdFloatDiv
opLat=1
pipelined=true

[system.cpu01.fuPool.FUList5.opList17]
type=OpDesc
eventq_index=0
opClass=SimdFloatMisc
opLat=1
pipelined=true

[system.cpu01.fuPool.FUList5.opList18]
type=OpDesc
eventq_index=0
opClass=SimdFloatMult
opLat=1
pipelined=true

[system.cpu01.fuPool.FUList5.opList19]
type=OpDesc
eventq_index=0
opClass=SimdFloatMultAcc
opLat=1
pipelined=true

[system.cpu01.fuPool.FUList5.opList20]
type=OpDesc
eventq_index=0
opClass=SimdFloatSqrt
opLat=1
pipelined=true

[system.cpu01.fuPool.FUList5.opList21]
type=OpDesc
eventq_index=0
opClass=SimdReduceAdd
opLat=1
pipelined=true

[system.cpu01.fuPool.FUList5.opList22]
type=OpDesc
eventq_index=0
opClass=SimdReduceAlu
opLat=1
pipelined=true

[system.cpu01.fuPool.FUList5.opList23]
type=OpDesc
eventq_index=0
opClass=SimdReduceCmp
opLat=1
pipelined=true

[system.cpu01.fuPool.FUList5.opList24]
type=OpDesc
eventq_index=0
opClass=SimdFloatReduceAdd
opLat=1
pipelined=true

[system.cpu01.fuPool.FUList5.opList25]
type=OpDesc
eventq_index=0
opClass=SimdFloatReduceCmp
opLat=1
pipelined=true

[system.cpu01.fuPool.FUList6]
type=FUDesc
children=opList
count=1
eventq_index=0
opList=system.cpu01.fuPool.FUList6.opList

[system.cpu01.fuPool.FUList6.opList]
type=OpDesc
eventq_index=0
opClass=SimdPredAlu
opLat=1
pipelined=true

[system.cpu01.fuPool.FUList7]
type=FUDesc
children=opList0 opList1
count=0
eventq_index=0
opList=system.cpu01.fuPool.FUList7.opList0 system.cpu01.fuPool.FUList7.opList1

[system.cpu01.fuPool.FUList7.opList0]
type=OpDesc
eventq_index=0
opClass=MemWrite
opLat=1
pipelined=true

[system.cpu01.fuPool.FUList7.opList1]
type=OpDesc
eventq_index=0
opClass=FloatMemWrite
opLat=1
pipelined=true

[system.cpu01.fuPool.FUList8]
type=FUDesc
children=opList0 opList1 opList2 opList3
count=4
eventq_index=0
opList=system.cpu01.fuPool.FUList8.opList0 system.cpu01.fuPool.FUList8.opList1 system.cpu01.fuPool.FUList8.opList2 system.cpu01.fuPool.FUList8.opList3

[system.cpu01.fuPool.FUList8.opList0]
type=OpDesc
eventq_index=0
opClass=MemRead
opLat=1
pipelined=true

[system.cpu01.fuPool.FUList8.opList1]
type=OpDesc
eventq_index=0
opClass=MemWrite
opLat=1
pipelined=true

[system.cpu01.fuPool.FUList8.opList2]
type=OpDesc
eventq_index=0
opClass=FloatMemRead
opLat=1
pipelined=true

[system.cpu01.fuPool.FUList8.opList3]
type=OpDesc
eventq_index=0
opClass=FloatMemWrite
opLat=1
pipelined=true

[system.cpu01.fuPool.FUList9]
type=FUDesc
children=opList
count=1
eventq_index=0
opList=system.cpu01.fuPool.FUList9.opList

[system.cpu01.fuPool.FUList9.opList]
type=OpDesc
eventq_index=0
opClass=IprAccess
opLat=3
pipelined=false

[system.cpu01.interrupts]
type=X86LocalApic
clk_domain=system.cpu01.apic_clk_domain
default_p_state=UNDEFINED
eventq_index=0
int_latency=1000
p_state_clk_gate_bins=20
p_state_clk_gate_max=1000000000000
p_state_clk_gate_min=1000
pio_addr=2305843009213693952
pio_latency=100000
power_model=
system=system
int_master=system.ruby.l1_cntrl1.sequencer.slave[2]
int_slave=system.ruby.l1_cntrl1.sequencer.master[1]
pio=system.ruby.l1_cntrl1.sequencer.master[0]

[system.cpu01.isa]
type=X86ISA
eventq_index=0

[system.cpu01.itb]
type=X86TLB
children=walker
eventq_index=0
size=64
walker=system.cpu01.itb.walker

[system.cpu01.itb.walker]
type=X86PagetableWalker
clk_domain=system.cpu_clk_domain
default_p_state=UNDEFINED
eventq_index=0
num_squash_per_cycle=4
p_state_clk_gate_bins=20
p_state_clk_gate_max=1000000000000
p_state_clk_gate_min=1000
power_model=
system=system
port=system.ruby.l1_cntrl1.sequencer.slave[3]

[system.cpu01.tracer]
type=ExeTracer
eventq_index=0

[system.cpu02]
type=DerivO3CPU
children=apic_clk_domain branchPred dtb fuPool interrupts isa itb tracer
LFSTSize=1024
LQEntries=32
LSQCheckLoads=true
LSQDepCheckShift=4
SQEntries=32
SSITSize=1024
activity=0
backComSize=5
branchPred=system.cpu02.branchPred
cacheLoadPorts=200
cacheStorePorts=200
checker=Null
clk_domain=system.cpu_clk_domain
commitToDecodeDelay=1
commitToFetchDelay=1
commitToIEWDelay=1
commitToRenameDelay=1
commitWidth=8
cpu_id=2
decodeToFetchDelay=1
decodeToRenameDelay=1
decodeWidth=8
default_p_state=UNDEFINED
dispatchWidth=8
do_checkpoint_insts=true
do_quiesce=true
do_statistics_insts=true
dtb=system.cpu02.dtb
eventq_index=0
fetchBufferSize=64
fetchQueueSize=32
fetchToDecodeDelay=1
fetchTrapLatency=1
fetchWidth=8
forwardComSize=5
fuPool=system.cpu02.fuPool
function_trace=false
function_trace_start=0
iewToCommitDelay=1
iewToDecodeDelay=1
iewToFetchDelay=1
iewToRenameDelay=1
interrupts=system.cpu02.interrupts
isa=system.cpu02.isa
issueToExecuteDelay=1
issueWidth=8
itb=system.cpu02.itb
max_insts_all_threads=0
max_insts_any_thread=0
max_loads_all_threads=0
max_loads_any_thread=0
needsTSO=true
numIQEntries=64
numPhysCCRegs=1280
numPhysFloatRegs=256
numPhysIntRegs=256
numPhysVecPredRegs=32
numPhysVecRegs=256
numROBEntries=192
numRobs=1
numThreads=1
p_state_clk_gate_bins=20
p_state_clk_gate_max=1000000000000
p_state_clk_gate_min=1000
power_gating_on_idle=false
power_model=
profile=0
progress_interval=0
pwr_gating_latency=300
renameToDecodeDelay=1
renameToFetchDelay=1
renameToIEWDelay=2
renameToROBDelay=1
renameWidth=8
simpoint_start_insts=
smtCommitPolicy=RoundRobin
smtFetchPolicy=SingleThread
smtIQPolicy=Partitioned
smtIQThreshold=100
smtLSQPolicy=Partitioned
smtLSQThreshold=100
smtNumFetchingThreads=1
smtROBPolicy=Partitioned
smtROBThreshold=100
socket_id=0
squashWidth=8
store_set_clear_period=250000
switched_out=false
syscallRetryLatency=10000
system=system
tracer=system.cpu02.tracer
trapLatency=13
wait_for_remote_gdb=false
wbWidth=8
workload=system.cpu00.workload
dcache_port=system.ruby.l1_cntrl2.sequencer.slave[1]
icache_port=system.ruby.l1_cntrl2.sequencer.slave[0]

[system.cpu02.apic_clk_domain]
type=DerivedClockDomain
clk_divider=16
clk_domain=system.cpu_clk_domain
eventq_index=0

[system.cpu02.branchPred]
type=TournamentBP
children=indirectBranchPred
BTBEntries=4096
BTBTagSize=16
RASSize=16
choiceCtrBits=2
choicePredictorSize=8192
eventq_index=0
globalCtrBits=2
globalPredictorSize=8192